wipe
model basic -ndm 3
node 122 0.0 720.0 780.0
node 124 1440.0 720.0 780.0
node 126 1440.0 0.0 780.0
node 128 0.0 0.0 780.0
node 46 0.0 480.0 780.0
node 44 0.0 240.0 780.0
node 98 240.0 720.0 780.0
node 26 480.0 720.0 780.0
node 8 720.0 720.0 780.0
node 28 960.0 720.0 780.0
node 100 1200.0 720.0 780.0
node 56 1440.0 480.0 780.0
node 58 1440.0 240.0 780.0
node 104 1200.0 0.0 780.0
node 32 960.0 0.0 780.0
node 10 720.0 0.0 780.0
node 30 480.0 0.0 780.0
node 102 240.0 0.0 780.0
node 74 240.0 240.0 780.0
node 76 240.0 480.0 780.0
# ... 1972 like lines cut
fix 402 0 0 1 1 1 0
fix 409 0 0 1 1 1 0
fix 404 0 0 1 1 1 0
fix 407 0 0 1 1 1 0
fix 239 0 0 1 1 1 0
fix 421 0 0 1 1 1 0
fix 561 0 0 1 1 1 0
fix 563 0 0 1 1 1 0
fix 567 0 0 1 1 1 0
fix 568 0 0 1 1 1 0
fix 611 0 0 1 1 1 0
fix 615 0 0 1 1 1 0
fix 616 0 0 1 1 1 0
fix 618 0 0 1 1 1 0
fix 298 0 0 1 1 1 0
fix 171 0 0 1 1 1 0
fix 394 0 0 1 1 1 0
fix 400 0 0 1 1 1 0
fix 396 0 0 1 1 1 0
fix 398 0 0 1 1 1 0
# ... 149 like lines cut
mass 171 3.226983 3.226983 0.0 0.0 0.0 688526.75
mass 173 4.590129 4.590129 0.0 0.0 0.0 966893.152
mass 175 4.594635 4.594635 0.0 0.0 0.0 968774.625
mass 177 4.625409 4.625409 0.0 0.0 0.0 978312.497
mass 202 4.730519 4.730519 0.0 0.0 0.0 1010783.505
mass 109 0.010101 0.010101 0.0 0.0 0.0 0.0
mass 111 0.010101 0.010101 0.0 0.0 0.0 0.0
mass 113 0.010101 0.010101 0.0 0.0 0.0 0.0
mass 115 0.010101 0.010101 0.0 0.0 0.0 0.0
mass 37 0.010101 0.010101 0.0 0.0 0.0 0.0
mass 39 0.010101 0.010101 0.0 0.0 0.0 0.0
mass 85 0.010101 0.010101 0.0 0.0 0.0 0.0
mass 13 0.010101 0.010101 0.0 0.0 0.0 0.0
mass 1 0.010101 0.010101 0.0 0.0 0.0 0.0
mass 15 0.010101 0.010101 0.0 0.0 0.0 0.0
mass 87 0.010101 0.010101 0.0 0.0 0.0 0.0
mass 49 0.010101 0.010101 0.0 0.0 0.0 0.0
mass 51 0.010101 0.010101 0.0 0.0 0.0 0.0
mass 89 0.010101 0.010101 0.0 0.0 0.0 0.0
mass 17 0.010101 0.010101 0.0 0.0 0.0 0.0
# ... 66 like lines cut
constraints Transformation
rigidDiaphragm 3 171 122 124 126 128 46 44 98 26 8 28 100 56 58 104 32 10 30 102 74 76 144 134 159 154 149 139 78 80 295 294 460 464 476 480 434 433 179 178 199 496 498 210 209 520 405 517 334 403 340 410 336 406 338 408 211 351 362 422 443 442 444 561 563 564 565 567 568 569 570 571 577 583 584 595 596 602 608 609 610 611 613 615 616 617 618 575 576 572 573 578 579 581 582 585 586 588 589 590 591
rigidDiaphragm 3 173 121 123 125 127 45 43 97 25 7 27 99 55 57 103 31 9 29 101 73 75 145 135 160 155 150 140 77 79 293 292 457 458 474 243 432 431 1440 1439 195 1443 1444 1442 1441 1446 230 1445 326 395 332 401 328 397 330 399 215 349 360 420 250 441 251 1447 1448 622 1449 1450 1451 1452 1453 1454 1459 1464 1465 1474 1475 1480 1485 1486 1487 1488 671 1489 1490 1491 1492 1457 1458 1455 1456 1460 14
rigidDiaphragm 3 175 129 130 131 132 48 47 105 33 11 34 106 60 59 108 36 12 35 107 81 82 146 136 161 156 151 141 83 84 291 290 455 456 473 242 430 429 1546 1545 191 1549 1550 1548 1547 1552 226 1551 318 387 324 393 320 389 322 391 214 347 358 418 248 440 249 1553 1554 680 1555 1556 1557 1558 1559 1560 1565 1570 1571 1580 1581 1586 1591 1592 1593 1594 729 1595 1596 1597 1598 1563 1564 1561 1562 156
rigidDiaphragm 3 177 117 118 119 120 42 41 93 21 5 22 94 54 53 96 24 6 23 95 69 70 147 137 162 157 152 142 71 72 289 288 453 454 472 241 428 427 1652 1651 187 1655 1656 1654 1653 1658 222 1657 310 379 316 385 312 381 314 383 213 345 356 416 246 439 247 1659 1660 738 1661 1662 1663 1664 1665 1666 1671 1676 1677 1686 1687 1692 1697 1698 1699 1700 787 1701 1702 1703 1704 1669 1670 1667 1668 1672 1673
rigidDiaphragm 3 202 110 112 114 116 38 40 86 14 2 16 88 50 52 90 18 4 20 92 62 64 143 133 158 153 148 138 66 68 287 286 447 452 467 240 426 425 1758 1757 183 1761 1762 1760 1759 1764 218 1763 299 366 308 377 302 370 305 373 212 343 354 414 244 437 245 1765 1766 796 1767 1768 1769 1770 1771 1772 1777 1782 1783 1792 1793 1798 1803 1804 1805 1806 845 1807 1808 1809 1810 1775 1776 1773 1774 1778 1779
geomTransf PDelta 10000001 1 0 0
element ElasticTimoshenkoBeam 10000001 1 1863 3321.0 1328.4 576.0 46742.39 27648.0 27648.0 480.0 480.0 10000001 -mass 0.0 -lMass
geomTransf PDelta 10000002 1 0 0
element ElasticTimoshenkoBeam 10000002 3 1864 3321.0 1328.4 576.0 46742.39 27648.0 27648.0 480.0 480.0 10000002 -mass 0.0 -lMass
geomTransf PDelta 10000003 1 0 0
element ElasticTimoshenkoBeam 10000003 1865 5 3321.0 1328.4 441.0 27399.53 16206.75 16206.75 367.5 367.5 10000003 -mass 0.0 -lMass
geomTransf PDelta 10000004 1 0 0
element ElasticTimoshenkoBeam 10000004 1866 6 3321.0 1328.4 441.0 27399.53 16206.75 16206.75 367.5 367.5 10000004 -mass 0.0 -lMass
geomTransf PDelta 10000005 1 0 0
element ElasticTimoshenkoBeam 10000005 7 8 3321.0 1328.4 378.0 19907.68 13891.5 10206.0 315.0 315.0 10000005 -mass 0.0 -lMass
geomTransf PDelta 10000006 1 0 0
element ElasticTimoshenkoBeam 10000006 9 10 3321.0 1328.4 378.0 19907.68 13891.5 10206.0 315.0 315.0 10000006 -mass 0.0 -lMass
geomTransf PDelta 10000007 1 0 0
element ElasticTimoshenkoBeam 10000007 11 7 3321.0 1328.4 378.0 19907.68 13891.5 10206.0 315.0 315.0 10000007 -mass 0.0 -lMass
geomTransf PDelta 10000008 1 0 0
element ElasticTimoshenkoBeam 10000008 12 9 3321.0 1328.4 378.0 19907.68 13891.5 10206.0 315.0 315.0 10000008 -mass 0.0 -lMass
geomTransf PDelta 10000009 1 0 0
element ElasticTimoshenkoBeam 10000009 5 11 3321.0 1328.4 378.0 19907.68 13891.5 10206.0 315.0 315.0 10000009 -mass 0.0 -lMass
geomTransf PDelta 10000010 1 0 0
element ElasticTimoshenkoBeam 10000010 6 12 3321.0 1328.4 378.0 19907.68 13891.5 10206.0 315.0 315.0 10000010 -mass 0.0 -lMass
geomTransf PDelta 10000011 1 0 0
element ElasticTimoshenkoBeam 10000011 13 1867 3321.0 1328.4 576.0 46742.39 27648.0 27648.0 480.0 480.0 10000011 -mass 0.0 -lMass
geomTransf PDelta 10000012 1 0 0
element ElasticTimoshenkoBeam 10000012 15 1868 3321.0 1328.4 576.0 46742.39 27648.0 27648.0 480.0 480.0 10000012 -mass 0.0 -lMass
geomTransf PDelta 10000013 1 0 0
element ElasticTimoshenkoBeam 10000013 17 1869 3321.0 1328.4 576.0 46742.39 27648.0 27648.0 480.0 480.0 10000013 -mass 0.0 -lMass
geomTransf PDelta 10000014 1 0 0
element ElasticTimoshenkoBeam 10000014 19 1870 3321.0 1328.4 576.0 46742.39 27648.0 27648.0 480.0 480.0 10000014 -mass 0.0 -lMass
geomTransf PDelta 10000015 1 0 0
element ElasticTimoshenkoBeam 10000015 1871 21 3321.0 1328.4 441.0 27399.53 16206.75 16206.75 367.5 367.5 10000015 -mass 0.0 -lMass
geomTransf PDelta 10000016 1 0 0
element ElasticTimoshenkoBeam 10000016 1872 22 3321.0 1328.4 441.0 27399.53 16206.75 16206.75 367.5 367.5 10000016 -mass 0.0 -lMass
geomTransf PDelta 10000017 1 0 0
element ElasticTimoshenkoBeam 10000017 1873 23 3321.0 1328.4 441.0 27399.53 16206.75 16206.75 367.5 367.5 10000017 -mass 0.0 -lMass
geomTransf PDelta 10000018 1 0 0
element ElasticTimoshenkoBeam 10000018 1874 24 3321.0 1328.4 441.0 27399.53 16206.75 16206.75 367.5 367.5 10000018 -mass 0.0 -lMass
geomTransf PDelta 10000019 1 0 0
element ElasticTimoshenkoBeam 10000019 25 26 3321.0 1328.4 378.0 19907.68 13891.5 10206.0 315.0 315.0 10000019 -mass 0.0 -lMass
geomTransf PDelta 10000020 1 0 0
element ElasticTimoshenkoBeam 10000020 27 28 3321.0 1328.4 378.0 19907.68 13891.5 10206.0 315.0 315.0 10000020 -mass 0.0 -lMass
# ... 1347 like lines cut
element elasticBeamColumn 10100231 133 2171 336.0 3321.0 1328.4 11797.28 13171199.999999998 1209600.0 10100231 -mass 0.0 -lMass -releasey 1
geomTransf PDelta 10200231 0 0 1
element elasticBeamColumn 10200231 2172 14 336.0 3321.0 1328.4 11797.28 13171199.999999998 1209600.0 10200231 -mass 0.0 -lMass -releasey 2
geomTransf PDelta 10100232 0 0 1
element elasticBeamColumn 10100232 134 2173 336.0 3321.0 1328.4 11797.28 13171199.999999998 1209600.0 10100232 -mass 0.0 -lMass -releasey 1
geomTransf PDelta 10200232 0 0 1
element elasticBeamColumn 10200232 2174 26 336.0 3321.0 1328.4 11797.28 13171199.999999998 1209600.0 10200232 -mass 0.0 -lMass -releasey 2
geomTransf PDelta 10100233 0 0 1
element elasticBeamColumn 10100233 135 2175 336.0 3321.0 1328.4 11797.28 13171199.999999998 1209600.0 10100233 -mass 0.0 -lMass -releasey 1
geomTransf PDelta 10200233 0 0 1
element elasticBeamColumn 10200233 2176 25 336.0 3321.0 1328.4 11797.28 13171199.999999998 1209600.0 10200233 -mass 0.0 -lMass -releasey 2
geomTransf PDelta 10100234 0 0 1
element elasticBeamColumn 10100234 136 2177 336.0 3321.0 1328.4 11797.28 13171199.999999998 1209600.0 10100234 -mass 0.0 -lMass -releasey 1
geomTransf PDelta 10200234 0 0 1
element elasticBeamColumn 10200234 2178 33 336.0 3321.0 1328.4 11797.28 13171199.999999998 1209600.0 10200234 -mass 0.0 -lMass -releasey 2
geomTransf PDelta 10100235 0 0 1
element elasticBeamColumn 10100235 137 2179 336.0 3321.0 1328.4 11797.28 13171199.999999998 1209600.0 10100235 -mass 0.0 -lMass -releasey 1
geomTransf PDelta 10200235 0 0 1
element elasticBeamColumn 10200235 2180 21 336.0 3321.0 1328.4 11797.28 13171199.999999998 1209600.0 10200235 -mass 0.0 -lMass -releasey 2
geomTransf PDelta 10100236 0 0 1
element elasticBeamColumn 10100236 138 2181 336.0 3321.0 1328.4 11797.28 13171199.999999998 1209600.0 10100236 -mass 0.0 -lMass -releasey 1
geomTransf PDelta 10200236 0 0 1
element elasticBeamColumn 10200236 2182 16 336.0 3321.0 1328.4 11797.28 13171199.999999998 1209600.0 10200236 -mass 0.0 -lMass -releasey 2
geomTransf PDelta 10100237 0 0 1
element elasticBeamColumn 10100237 139 2183 336.0 3321.0 1328.4 11797.28 13171199.999999998 1209600.0 10100237 -mass 0.0 -lMass -releasey 1
geomTransf PDelta 10200237 0 0 1
element elasticBeamColumn 10200237 2184 28 336.0 3321.0 1328.4 11797.28 13171199.999999998 1209600.0 10200237 -mass 0.0 -lMass -releasey 2
geomTransf PDelta 10100238 0 0 1
element elasticBeamColumn 10100238 140 2185 336.0 3321.0 1328.4 11797.28 13171199.999999998 1209600.0 10100238 -mass 0.0 -lMass -releasey 1
geomTransf PDelta 10200238 0 0 1
element elasticBeamColumn 10200238 2186 27 336.0 3321.0 1328.4 11797.28 13171199.999999998 1209600.0 10200238 -mass 0.0 -lMass -releasey 2
geomTransf PDelta 10100239 0 0 1
element elasticBeamColumn 10100239 141 2187 336.0 3321.0 1328.4 11797.28 13171199.999999998 1209600.0 10100239 -mass 0.0 -lMass -releasey 1
geomTransf PDelta 10200239 0 0 1
element elasticBeamColumn 10200239 2188 34 336.0 3321.0 1328.4 11797.28 13171199.999999998 1209600.0 10200239 -mass 0.0 -lMass -releasey 2
geomTransf PDelta 10100240 0 0 1
element elasticBeamColumn 10100240 142 2189 336.0 3321.0 1328.4 11797.28 13171199.999999998 1209600.0 10100240 -mass 0.0 -lMass -releasey 1
geomTransf PDelta 10200240 0 0 1
element elasticBeamColumn 10200240 2190 22 336.0 3321.0 1328.4 11797.28 13171199.999999998 1209600.0 10200240 -mass 0.0 -lMass -releasey 2
geomTransf PDelta 10100241 0 0 1
# ... 139 like lines cut
section ElasticMembranePlateSection 10201456 3321.0 0.25 8.0 0.0 0.33
element ShellDKGQ 10201456 1757 1339 1860 148 10201456
section ElasticMembranePlateSection 10201457 3321.0 0.25 8.0 0.0 0.33
element ShellDKGQ 10201457 1339 354 1800 1860 10201457
section ElasticMembranePlateSection 10201458 3321.0 0.25 8.0 0.0 0.33
element ShellDKGQ 10201458 138 1861 1220 1759 10201458
section ElasticMembranePlateSection 10201459 3321.0 0.25 8.0 0.0 0.33
element ShellDKGQ 10201459 1861 1801 414 1220 10201459
section ElasticMembranePlateSection 10201460 3321.0 0.25 8.0 0.0 0.33
element ShellDKGQ 10201460 1759 1220 1862 16 10201460
section ElasticMembranePlateSection 10201461 3321.0 0.25 8.0 0.0 0.33
element ShellDKGQ 10201461 1220 414 1802 1862 10201461
section ElasticMembranePlateSection 10200481 3321.0 0.25 8.0 0.0 0.33
element ShellDKGQ 10200481 149 78 80 139 10200481
section ElasticMembranePlateSection 10200482 3321.0 0.25 8.0 0.0 0.33
element ShellDKGQ 10200482 74 144 134 76 10200482
section ElasticMembranePlateSection 10200487 3321.0 0.25 8.0 0.0 0.33
element ShellDKGQ 10200487 600 139 317 319 10200487
section ElasticMembranePlateSection 10200488 3321.0 0.25 8.0 0.0 0.33
element ShellDKGQ 10200488 319 317 209 410 10200488
section ElasticMembranePlateSection 10200489 3321.0 0.25 8.0 0.0 0.33
element ShellDKGQ 10200489 410 209 321 323 10200489
section ElasticMembranePlateSection 10200490 3321.0 0.25 8.0 0.0 0.33
element ShellDKGQ 10200490 323 321 28 601 10200490
section ElasticMembranePlateSection 10200491 3321.0 0.25 8.0 0.0 0.33
element ShellDKGQ 10200491 134 581 325 327 10200491
section ElasticMembranePlateSection 10200492 3321.0 0.25 8.0 0.0 0.33
element ShellDKGQ 10200492 327 325 403 210 10200492
section ElasticMembranePlateSection 10200493 3321.0 0.25 8.0 0.0 0.33
element ShellDKGQ 10200493 210 403 329 331 10200493
section ElasticMembranePlateSection 10200494 3321.0 0.25 8.0 0.0 0.33
element ShellDKGQ 10200494 331 329 582 26 10200494
section ElasticMembranePlateSection 10200495 3321.0 0.25 8.0 0.0 0.33
element ShellDKGQ 10200495 588 154 333 335 10200495
section ElasticMembranePlateSection 10200496 3321.0 0.25 8.0 0.0 0.33
element ShellDKGQ 10200496 335 333 405 406 10200496
section ElasticMembranePlateSection 10200497 3321.0 0.25 8.0 0.0 0.33
element ShellDKGQ 10200497 406 405 337 339 10200497
section ElasticMembranePlateSection 10200498 3321.0 0.25 8.0 0.0 0.33
element ShellDKGQ 10200498 339 337 8 589 10200498
# ... 980 like lines cut
uniaxialMaterial Hysteretic 3100001 2.25 0.0005532551085910772 4.05 0.00179254655183509 0.02025 0.0038215822412739006 -2.25 -0.0005532551085910772 -4.05 -0.00179254655183509 -0.02025 -0.0038215822412739006 0.8 0.2 0.0 0.0 0.0
uniaxialMaterial ENT 3300001 406683.99894758564
uniaxialMaterial Series 3400001 3100001.0 3300001.0
uniaxialMaterial Hysteretic 3500001 44.0 0.0015172413793103448 50.1257099632924 0.034071498413974284 27.978701183517806 0.03998513653140343 -39.20610553011459 -0.0013519346734522273 -44.05180396642089 -0.00179254655183509 -2.2025901983210447 -0.0038215822412739006 0.25 0.75 0.0 0.0 0.0
uniaxialMaterial Hysteretic 3100002 2.25 0.0005532551085910772 4.05 0.00179254655183509 0.02025 0.0038215822412739006 -2.25 -0.0005532551085910772 -4.05 -0.00179254655183509 -0.02025 -0.0038215822412739006 0.8 0.2 0.0 0.0 0.0
uniaxialMaterial ENT 3300002 406683.99894758564
uniaxialMaterial Series 3400002 3100002.0 3300002.0
uniaxialMaterial Hysteretic 3500002 44.0 0.0015172413793103448 50.1257099632924 0.034071498413974284 27.978701183517806 0.03998513653140343 -39.20610553011459 -0.0013519346734522273 -44.05180396642089 -0.00179254655183509 -2.2025901983210447 -0.0038215822412739006 0.25 0.75 0.0 0.0 0.0
uniaxialMaterial Hysteretic 3100003 2.25 0.0005532551085910772 4.05 0.00179254655183509 0.02025 0.0038215822412739006 -2.25 -0.0005532551085910772 -4.05 -0.00179254655183509 -0.02025 -0.0038215822412739006 0.8 0.2 0.0 0.0 0.0
uniaxialMaterial ENT 3300003 406683.99894758564
uniaxialMaterial Series 3400003 3100003.0 3300003.0
uniaxialMaterial Hysteretic 3500003 44.0 0.0015172413793103448 50.12591644035706 0.03293645073014893 25.896214400224206 0.03845687057837886 -39.20777274477696 -0.0013519921636129986 -44.053677241322426 -0.00179254655183509 -2.2026838620661215 -0.0038215822412739006 0.25 0.75 0.0 0.0 0.0
uniaxialMaterial Hysteretic 3100004 2.25 0.0005532551085910772 4.05 0.00179254655183509 0.02025 0.0038215822412739006 -2.25 -0.0005532551085910772 -4.05 -0.00179254655183509 -0.02025 -0.0038215822412739006 0.8 0.2 0.0 0.0 0.0
uniaxialMaterial ENT 3300004 406683.99894758564
uniaxialMaterial Series 3400004 3100004.0 3300004.0
uniaxialMaterial Hysteretic 3500004 44.0 0.0015172413793103448 50.12703593270092 0.027942145780128637 15.038110779810275 0.031394260568753565 -39.21681217030909 -0.0013523038679416927 -44.063833899223695 -0.00179254655183509 -2.203191694961185 -0.0038215822412739006 0.25 0.75 0.0 0.0 0.0
uniaxialMaterial Hysteretic 3100005 2.25 0.0005532551085910772 4.05 0.00179254655183509 0.02025 0.0038215822412739006 -2.25 -0.0005532551085910772 -4.05 -0.00179254655183509 -0.02025 -0.0038215822412739006 0.8 0.2 0.0 0.0 0.0
uniaxialMaterial ENT 3300005 406683.99894758564
uniaxialMaterial Series 3400005 3100005.0 3300005.0
uniaxialMaterial Hysteretic 3500005 44.0 0.0015172413793103448 50.12591644036834 0.03293645067027259 25.896214292583352 0.03845687049820132 -39.20777274486809 -0.001351992163616141 -44.053677241424815 -0.00179254655183509 -2.202683862071241 -0.0038215822412739006 0.25 0.75 0.0 0.0 0.0
uniaxialMaterial Hysteretic 3100006 2.25 0.0005532551085910772 4.05 0.00179254655183509 0.02025 0.0038215822412739006 -2.25 -0.0005532551085910772 -4.05 -0.00179254655183509 -0.02025 -0.0038215822412739006 0.8 0.2 0.0 0.0 0.0
uniaxialMaterial ENT 3300006 406683.99894758564
uniaxialMaterial Series 3400006 3100006.0 3300006.0
uniaxialMaterial Hysteretic 3500006 44.0 0.0015172413793103448 50.12473390005039 0.040777469147183484 15.037420170015116 0.04397791092861125 -39.19822423370445 -0.0013516629046104983 -44.042948577196015 -0.00179254655183509 -2.2021474288598006 -0.0038215822412739006 0.25 0.75 0.0 0.0 0.0
uniaxialMaterial Hysteretic 3100007 2.25 0.0005532551085910772 4.05 0.00179254655183509 0.02025 0.0038215822412739006 -2.25 -0.0005532551085910772 -4.05 -0.00179254655183509 -0.02025 -0.0038215822412739006 0.8 0.2 0.0 0.0 0.0
uniaxialMaterial ENT 3300007 406683.99894758564
uniaxialMaterial Series 3400007 3100007.0 3300007.0
uniaxialMaterial Hysteretic 3500007 44.0 0.0015172413793103448 50.12473390005039 0.040777469147183484 15.037420170015116 0.04397791092861125 -39.19822423370445 -0.0013516629046104983 -44.042948577196015 -0.00179254655183509 -2.2021474288598006 -0.0038215822412739006 0.25 0.75 0.0 0.0 0.0
uniaxialMaterial Hysteretic 3100008 2.25 0.0005532551085910772 4.05 0.00179254655183509 0.02025 0.0038215822412739006 -2.25 -0.0005532551085910772 -4.05 -0.00179254655183509 -0.02025 -0.0038215822412739006 0.8 0.2 0.0 0.0 0.0
uniaxialMaterial ENT 3300008 406683.99894758564
uniaxialMaterial Series 3400008 3100008.0 3300008.0
uniaxialMaterial Hysteretic 3500008 44.0 0.0015172413793103448 50.124718534262335 0.04090522027347832 15.0374155602787 0.044103157130861104 -39.19810016148763 -0.0013516586262581941 -44.042809170210816 -0.00179254655183509 -2.202140458510541 -0.0038215822412739006 0.25 0.75 0.0 0.0 0.0
uniaxialMaterial Hysteretic 3100009 2.25 0.0005532551085910772 4.05 0.00179254655183509 0.02025 0.0038215822412739006 -2.25 -0.0005532551085910772 -4.05 -0.00179254655183509 -0.02025 -0.0038215822412739006 0.8 0.2 0.0 0.0 0.0
uniaxialMaterial ENT 3300009 406683.99894758564
uniaxialMaterial Series 3400009 3100009.0 3300009.0
uniaxialMaterial Hysteretic 3500009 44.0 0.0015172413793103448 50.124718534262335 0.04090522027347832 15.0374155602787 0.044103157130861104 -39.19810016148763 -0.0013516586262581941 -44.042809170210816 -0.00179254655183509 -2.202140458510541 -0.0038215822412739006 0.25 0.75 0.0 0.0 0.0
uniaxialMaterial Hysteretic 3100010 2.25 0.0005532551085910772 4.05 0.00179254655183509 0.02025 0.0038215822412739006 -2.25 -0.0005532551085910772 -4.05 -0.00179254655183509 -0.02025 -0.0038215822412739006 0.8 0.2 0.0 0.0 0.0
uniaxialMaterial ENT 3300010 406683.99894758564
uniaxialMaterial Series 3400010 3100010.0 3300010.0
uniaxialMaterial Hysteretic 3500010 44.0 0.0015172413793103448 50.124718534553196 0.04090521784736586 15.037415560365957 0.04410315475231946 -39.19810016383623 -0.0013516586263391803 -44.042809172849694 -0.00179254655183509 -2.202140458642485 -0.0038215822412739006 0.25 0.75 0.0 0.0 0.0
uniaxialMaterial Hysteretic 3100011 2.25 0.0005532551085910772 4.05 0.00179254655183509 0.02025 0.0038215822412739006 -2.25 -0.0005532551085910772 -4.05 -0.00179254655183509 -0.02025 -0.0038215822412739006 0.8 0.2 0.0 0.0 0.0
uniaxialMaterial ENT 3300011 406683.99894758564
uniaxialMaterial Series 3400011 3100011.0 3300011.0
uniaxialMaterial Hysteretic 3500011 44.0 0.0015172413793103448 50.124718534553196 0.04090521784736586 15.037415560365957 0.04410315475231946 -39.19810016383623 -0.0013516586263391803 -44.042809172849694 -0.00179254655183509 -2.202140458642485 -0.0038215822412739006 0.25 0.75 0.0 0.0 0.0
uniaxialMaterial Hysteretic 3100012 2.25 0.0005532551085910772 4.05 0.00179254655183509 0.02025 0.0038215822412739006 -2.25 -0.0005532551085910772 -4.05 -0.00179254655183509 -0.02025 -0.0038215822412739006 0.8 0.2 0.0 0.0 0.0
uniaxialMaterial ENT 3300012 406683.99894758564
uniaxialMaterial Series 3400012 3100012.0 3300012.0
uniaxialMaterial Hysteretic 3500012 44.0 0.0015172413793103448 50.12795213374105 0.02490111003774492 15.038385640122314 0.028412852978181292 -39.224210104846236 -0.0013525589691326288 -44.07214618522049 -0.00179254655183509 -2.2036073092610247 -0.0038215822412739006 0.25 0.75 0.0 0.0 0.0
uniaxialMaterial Hysteretic 3100013 2.25 0.0005532551085910772 4.05 0.00179254655183509 0.02025 0.0038215822412739006 -2.25 -0.0005532551085910772 -4.05 -0.00179254655183509 -0.02025 -0.0038215822412739006 0.8 0.2 0.0 0.0 0.0
uniaxialMaterial ENT 3300013 406683.99894758564
uniaxialMaterial Series 3400013 3100013.0 3300013.0
uniaxialMaterial Hysteretic 3500013 44.0 0.0015172413793103448 50.12795213374105 0.02490111003774492 15.038385640122314 0.028412852978181292 -39.224210104846236 -0.0013525589691326288 -44.07214618522049 -0.00179254655183509 -2.2036073092610247 -0.0038215822412739006 0.25 0.75 0.0 0.0 0.0
uniaxialMaterial Hysteretic 3100014 2.25 0.0005532551085910772 4.05 0.00179254655183509 0.02025 0.0038215822412739006 -2.25 -0.0005532551085910772 -4.05 -0.00179254655183509 -0.02025 -0.0038215822412739006 0.8 0.2 0.0 0.0 0.0
uniaxialMaterial ENT 3300014 406683.99894758564
uniaxialMaterial Series 3400014 3100014.0 3300014.0
uniaxialMaterial Hysteretic 3500014 44.0 0.0015172413793103448 50.12790782679325 0.025031958042937 15.038372348037974 0.028541135336212747 -39.22385234504789 -0.0013525466325878582 -44.071744207918975 -0.00179254655183509 -2.203587210395949 -0.0038215822412739006 0.25 0.75 0.0 0.0 0.0
uniaxialMaterial Hysteretic 3100015 2.25 0.0005532551085910772 4.05 0.00179254655183509 0.02025 0.0038215822412739006 -2.25 -0.0005532551085910772 -4.05 -0.00179254655183509 -0.02025 -0.0038215822412739006 0.8 0.2 0.0 0.0 0.0
uniaxialMaterial ENT 3300015 406683.99894758564
uniaxialMaterial Series 3400015 3100015.0 3300015.0
uniaxialMaterial Hysteretic 3500015 44.0 0.0015172413793103448 50.12730380218475 0.026974116133375938 15.038191140655425 0.030445211895466607 -39.21897510269957 -0.0013523784518172264 -44.066264160336594 -0.00179254655183509 -2.2033132080168296 -0.0038215822412739006 0.25 0.75 0.0 0.0 0.0
uniaxialMaterial Hysteretic 3100016 2.25 0.0005532551085910772 4.05 0.00179254655183509 0.02025 0.0038215822412739006 -2.25 -0.0005532551085910772 -4.05 -0.00179254655183509 -0.02025 -0.0038215822412739006 0.8 0.2 0.0 0.0 0.0
uniaxialMaterial ENT 3300016 406683.99894758564
uniaxialMaterial Series 3400016 3100016.0 3300016.0
uniaxialMaterial Hysteretic 3500016 44.0 0.0015172413793103448 50.12790782679325 0.025031958042937 15.038372348037974 0.028541135336212747 -39.22385234504789 -0.0013525466325878582 -44.071744207918975 -0.00179254655183509 -2.203587210395949 -0.0038215822412739006 0.25 0.75 0.0 0.0 0.0
uniaxialMaterial Hysteretic 3100017 2.25 0.0005532551085910772 4.05 0.00179254655183509 0.02025 0.0038215822412739006 -2.25 -0.0005532551085910772 -4.05 -0.00179254655183509 -0.02025 -0.0038215822412739006 0.8 0.2 0.0 0.0 0.0
uniaxialMaterial ENT 3300017 406683.99894758564
uniaxialMaterial Series 3400017 3100017.0 3300017.0
uniaxialMaterial Hysteretic 3500017 44.0 0.0015172413793103448 50.12471654304879 0.04092183614089437 15.037414962914637 0.044119447196955264 -39.1980840832834 -0.0013516580718373585 -44.04279110481281 -0.00179254655183509 -2.2021395552406404 -0.0038215822412739006 0.25 0.75 0.0 0.0 0.0
uniaxialMaterial Hysteretic 3100018 2.25 0.0005532551085910772 4.05 0.00179254655183509 0.02025 0.0038215822412739006 -2.25 -0.0005532551085910772 -4.05 -0.00179254655183509 -0.02025 -0.0038215822412739006 0.8 0.2 0.0 0.0 0.0
uniaxialMaterial ENT 3300018 406683.99894758564
uniaxialMaterial Series 3400018 3100018.0 3300018.0
uniaxialMaterial Hysteretic 3500018 44.0 0.0015172413793103448 50.12473381483784 0.04077817531719717 15.037420144451351 0.043978603252154094 -39.198223545649334 -0.0013516628808844598 -44.04294780410037 -0.00179254655183509 -2.2021473902050186 -0.0038215822412739006 0.25 0.75 0.0 0.0 0.0
uniaxialMaterial Hysteretic 3100019 2.25 0.0005532551085910772 4.05 0.00179254655183509 0.02025 0.0038215822412739006 -2.25 -0.0005532551085910772 -4.05 -0.00179254655183509 -0.02025 -0.0038215822412739006 0.8 0.2 0.0 0.0 0.0
uniaxialMaterial ENT 3300019 406683.99894758564
uniaxialMaterial Series 3400019 3100019.0 3300019.0
uniaxialMaterial Hysteretic 3500019 44.0 0.0015172413793103448 50.12471654304879 0.04092183614089437 15.037414962914637 0.044119447196955264 -39.1980840832834 -0.0013516580718373585 -44.04279110481281 -0.00179254655183509 -2.2021395552406404 -0.0038215822412739006 0.25 0.75 0.0 0.0 0.0
uniaxialMaterial Hysteretic 3100020 2.25 0.0005532551085910772 4.05 0.00179254655183509 0.02025 0.0038215822412739006 -2.25 -0.0005532551085910772 -4.05 -0.00179254655183509 -0.02025 -0.0038215822412739006 0.8 0.2 0.0 0.0 0.0
uniaxialMaterial ENT 3300020 406683.99894758564
uniaxialMaterial Series 3400020 3100020.0 3300020.0
uniaxialMaterial Hysteretic 3500020 44.0 0.0015172413793103448 50.12471654278597 0.04092183833497573 15.03741496283579 0.04411944934801543 -39.19808408116121 -0.0013516580717641798 -44.042791102428325 -0.00179254655183509 -2.2021395551214162 -0.0038215822412739006 0.25 0.75 0.0 0.0 0.0
uniaxialMaterial Hysteretic 3100021 2.25 0.0005532551085910772 4.05 0.00179254655183509 0.02025 0.0038215822412739006 -2.25 -0.0005532551085910772 -4.05 -0.00179254655183509 -0.02025 -0.0038215822412739006 0.8 0.2 0.0 0.0 0.0
uniaxialMaterial ENT 3300021 406683.99894758564
uniaxialMaterial Series 3400021 3100021.0 3300021.0
uniaxialMaterial Hysteretic 3500021 44.0 0.0015172413793103448 50.12473381483784 0.04077817531719717 15.037420144451351 0.043978603252154094 -39.198223545649334 -0.0013516628808844598 -44.04294780410037 -0.00179254655183509 -2.2021473902050186 -0.0038215822412739006 0.25 0.75 0.0 0.0 0.0
uniaxialMaterial Hysteretic 3100022 2.25 0.0005532551085910772 4.05 0.00179254655183509 0.02025 0.0038215822412739006 -2.25 -0.0005532551085910772 -4.05 -0.00179254655183509 -0.02025 -0.0038215822412739006 0.8 0.2 0.0 0.0 0.0
uniaxialMaterial ENT 3300022 406683.99894758564
uniaxialMaterial Series 3400022 3100022.0 3300022.0
uniaxialMaterial Hysteretic 3500022 44.0 0.0015172413793103448 50.12471654278597 0.04092183833497573 15.03741496283579 0.04411944934801543 -39.19808408116121 -0.0013516580717641798 -44.042791102428325 -0.00179254655183509 -2.2021395551214162 -0.0038215822412739006 0.25 0.75 0.0 0.0 0.0
uniaxialMaterial Hysteretic 3100023 2.25 0.0005532551085910772 4.05 0.00179254655183509 0.02025 0.0038215822412739006 -2.25 -0.0005532551085910772 -4.05 -0.00179254655183509 -0.02025 -0.0038215822412739006 0.8 0.2 0.0 0.0 0.0
uniaxialMaterial ENT 3300023 406683.99894758564
uniaxialMaterial Series 3400023 3100023.0 3300023.0
uniaxialMaterial Hysteretic 3500023 44.0 0.0015172413793103448 50.12473372984444 0.040778879696435615 15.037420118953332 0.04397929382003492 -39.19822285936373 -0.001351662857219439 -44.042947032992956 -0.00179254655183509 -2.2021473516496477 -0.0038215822412739006 0.25 0.75 0.0 0.0 0.0
uniaxialMaterial Hysteretic 3100024 2.25 0.0005532551085910772 4.05 0.00179254655183509 0.02025 0.0038215822412739006 -2.25 -0.0005532551085910772 -4.05 -0.00179254655183509 -0.02025 -0.0038215822412739006 0.8 0.2 0.0 0.0 0.0
uniaxialMaterial ENT 3300024 406683.99894758564
uniaxialMaterial Series 3400024 3100024.0 3300024.0
uniaxialMaterial Hysteretic 3500024 44.0 0.0015172413793103448 50.12473372984444 0.040778879696435615 15.037420118953332 0.04397929382003492 -39.19822285936373 -0.001351662857219439 -44.042947032992956 -0.00179254655183509 -2.2021473516496477 -0.0038215822412739006 0.25 0.75 0.0 0.0 0.0
uniaxialMaterial Hysteretic 3100025 2.25 0.0005532551085910772 4.05 0.00179254655183509 0.02025 0.0038215822412739006 -2.25 -0.0005532551085910772 -4.05 -0.00179254655183509 -0.02025 -0.0038215822412739006 0.8 0.2 0.0 0.0 0.0
uniaxialMaterial ENT 3300025 406683.99894758564
uniaxialMaterial Series 3400025 3100025.0 3300025.0
uniaxialMaterial Hysteretic 3500025 44.0 0.0015172413793103448 50.127844779605205 0.025220698030766205 19.239225902567895 0.029564206274057196 -39.223343265763475 -0.001352529078129775 -44.071172208723006 -0.00179254655183509 -2.20355861043615 -0.0038215822412739006 0.25 0.75 0.0 0.0 0.0
uniaxialMaterial Hysteretic 3100026 2.25 0.0005532551085910772 4.05 0.00179254655183509 0.02025 0.0038215822412739006 -2.25 -0.0005532551085910772 -4.05 -0.00179254655183509 -0.02025 -0.0038215822412739006 0.8 0.2 0.0 0.0 0.0
uniaxialMaterial ENT 3300026 406683.99894758564
uniaxialMaterial Series 3400026 3100026.0 3300026.0
uniaxialMaterial Hysteretic 3500026 44.0 0.0015172413793103448 50.127844779605205 0.025220698030766205 19.239225902567895 0.029564206274057196 -39.223343265763475 -0.001352529078129775 -44.071172208723006 -0.00179254655183509 -2.20355861043615 -0.0038215822412739006 0.25 0.75 0.0 0.0 0.0
uniaxialMaterial Hysteretic 3100027 2.25 0.0005532551085910772 4.05 0.00179254655183509 0.02025 0.0038215822412739006 -2.25 -0.0005532551085910772 -4.05 -0.00179254655183509 -0.02025 -0.0038215822412739006 0.8 0.2 0.0 0.0 0.0
uniaxialMaterial ENT 3300027 406683.99894758564
uniaxialMaterial Series 3400027 3100027.0 3300027.0
uniaxialMaterial Hysteretic 3500027 44.0 0.0015172413793103448 50.128433653434605 0.023567739900376868 15.038530096030382 0.027105627353310655 -39.22809817200103 -0.0013526930404138288 -44.076514800001156 -0.00179254655183509 -2.203825740000058 -0.0038215822412739006 0.25 0.75 0.0 0.0 0.0
uniaxialMaterial Hysteretic 3100028 2.25 0.0005532551085910772 4.05 0.00179254655183509 0.02025 0.0038215822412739006 -2.25 -0.0005532551085910772 -4.05 -0.00179254655183509 -0.02025 -0.0038215822412739006 0.8 0.2 0.0 0.0 0.0
uniaxialMaterial ENT 3300028 406683.99894758564
uniaxialMaterial Series 3400028 3100028.0 3300028.0
uniaxialMaterial Hysteretic 3500028 44.0 0.0015172413793103448 50.128433653434605 0.023567739900376868 15.038530096030382 0.027105627353310655 -39.22809817200103 -0.0013526930404138288 -44.076514800001156 -0.00179254655183509 -2.203825740000058 -0.0038215822412739006 0.25 0.75 0.0 0.0 0.0
uniaxialMaterial Hysteretic 3100029 2.25 0.0005532551085910772 4.05 0.00179254655183509 0.02025 0.0038215822412739006 -2.25 -0.0005532551085910772 -4.05 -0.00179254655183509 -0.02025 -0.0038215822412739006 0.8 0.2 0.0 0.0 0.0
uniaxialMaterial ENT 3300029 406683.99894758564
uniaxialMaterial Series 3400029 3100029.0 3300029.0
uniaxialMaterial Hysteretic 3500029 44.0 0.0015172413793103448 50.12471461806794 0.040937912666334765 15.037414385420382 0.04413520849640663 -39.19806853988001 -0.0013516575358579314 -44.04277364031462 -0.00179254655183509 -2.202138682015731 -0.0038215822412739006 0.25 0.75 0.0 0.0 0.0
uniaxialMaterial Hysteretic 3100030 2.25 0.0005532551085910772 4.05 0.00179254655183509 0.02025 0.0038215822412739006 -2.25 -0.0005532551085910772 -4.05 -0.00179254655183509 -0.02025 -0.0038215822412739006 0.8 0.2 0.0 0.0 0.0
uniaxialMaterial ENT 3300030 406683.99894758564
uniaxialMaterial Series 3400030 3100030.0 3300030.0
uniaxialMaterial Hysteretic 3500030 44.0 0.0015172413793103448 50.12471461771035 0.040937915653915725 15.037414385313106 0.04413521142540758 -39.198068536992686 -0.0013516575357583685 -44.04277363707043 -0.00179254655183509 -2.202138681853522 -0.0038215822412739006 0.25 0.75 0.0 0.0 0.0
uniaxialMaterial Hysteretic 3100031 2.25 0.0005532551085910772 4.05 0.00179254655183509 0.02025 0.0038215822412739006 -2.25 -0.0005532551085910772 -4.05 -0.00179254655183509 -0.02025 -0.0038215822412739006 0.8 0.2 0.0 0.0 0.0
uniaxialMaterial ENT 3300031 406683.99894758564
uniaxialMaterial Series 3400031 3100031.0 3300031.0
uniaxialMaterial Hysteretic 3500031 44.0 0.0015172413793103448 50.12471461806794 0.040937912666334765 15.037414385420382 0.04413520849640663 -39.19806853988001 -0.0013516575358579314 -44.04277364031462 -0.00179254655183509 -2.202138682015731 -0.0038215822412739006 0.25 0.75 0.0 0.0 0.0
uniaxialMaterial Hysteretic 3100032 2.25 0.0005532551085910772 4.05 0.00179254655183509 0.02025 0.0038215822412739006 -2.25 -0.0005532551085910772 -4.05 -0.00179254655183509 -0.02025 -0.0038215822412739006 0.8 0.2 0.0 0.0 0.0
uniaxialMaterial ENT 3300032 406683.99894758564
uniaxialMaterial Series 3400032 3100032.0 3300032.0
uniaxialMaterial Hysteretic 3500032 44.0 0.0015172413793103448 50.12471461771035 0.040937915653915725 15.037414385313106 0.04413521142540758 -39.198068536992686 -0.0013516575357583685 -44.04277363707043 -0.00179254655183509 -2.202138681853522 -0.0038215822412739006 0.25 0.75 0.0 0.0 0.0
uniaxialMaterial Hysteretic 3100033 2.25 0.0005532551085910772 4.05 0.00179254655183509 0.02025 0.0038215822412739006 -2.25 -0.0005532551085910772 -4.05 -0.00179254655183509 -0.02025 -0.0038215822412739006 0.8 0.2 0.0 0.0 0.0
uniaxialMaterial ENT 3300033 406683.99894758564
uniaxialMaterial Series 3400033 3100033.0 3300033.0
uniaxialMaterial Hysteretic 3500033 44.0 0.0015172413793103448 50.127503753012846 0.02629658107782726 15.038251125903853 0.02978096184100712 -39.22058962077159 -0.0013524341248541928 -44.068078225586056 -0.00179254655183509 -2.203403911279303 -0.0038215822412739006 0.25 0.75 0.0 0.0 0.0
uniaxialMaterial Hysteretic 3100034 2.25 0.0005532551085910772 4.05 0.00179254655183509 0.02025 0.0038215822412739006 -2.25 -0.0005532551085910772 -4.05 -0.00179254655183509 -0.02025 -0.0038215822412739006 0.8 0.2 0.0 0.0 0.0
uniaxialMaterial ENT 3300034 406683.99894758564
uniaxialMaterial Series 3400034 3100034.0 3300034.0
uniaxialMaterial Hysteretic 3500034 44.0 0.0015172413793103448 50.1269111888195 0.028418555829904026 30.0761467132917 0.034861329245003944 -39.2158049164115 -0.0013522691350486725 -44.062702153271346 -0.00179254655183509 -2.2031351076635675 -0.0038215822412739006 0.25 0.75 0.0 0.0 0.0
uniaxialMaterial Hysteretic 3100035 2.25 0.0005532551085910772 4.05 0.00179254655183509 0.02025 0.0038215822412739006 -2.25 -0.0005532551085910772 -4.05 -0.00179254655183509 -0.02025 -0.0038215822412739006 0.8 0.2 0.0 0.0 0.0
uniaxialMaterial ENT 3300035 406683.99894758564
uniaxialMaterial Series 3400035 3100035.0 3300035.0
uniaxialMaterial Hysteretic 3500035 44.0 0.0015172413793103448 50.12754433008337 0.02616346896591515 23.654183384398344 0.03136925932482564 -39.220917263394036 -0.0013524454228756564 -44.06844636336408 -0.00179254655183509 -2.203422318168204 -0.0038215822412739006 0.25 0.75 0.0 0.0 0.0
uniaxialMaterial Hysteretic 3100036 2.25 0.0005532551085910772 4.05 0.00179254655183509 0.02025 0.0038215822412739006 -2.25 -0.0005532551085910772 -4.05 -0.00179254655183509 -0.02025 -0.0038215822412739006 0.8 0.2 0.0 0.0 0.0
uniaxialMaterial ENT 3300036 406683.99894758564
uniaxialMaterial Series 3400036 3100036.0 3300036.0
uniaxialMaterial Hysteretic 3500036 44.0 0.0015172413793103448 50.12754433008337 0.02616346896591515 23.654183384398344 0.03136925932482564 -39.220917263394036 -0.0013524454228756564 -44.06844636336408 -0.00179254655183509 -2.203422318168204 -0.0038215822412739006 0.25 0.75 0.0 0.0 0.0
uniaxialMaterial Hysteretic 3100037 2.25 0.0005532551085910772 4.05 0.00179254655183509 0.02025 0.0038215822412739006 -2.25 -0.0005532551085910772 -4.05 -0.00179254655183509 -0.02025 -0.0038215822412739006 0.8 0.2 0.0 0.0 0.0
uniaxialMaterial ENT 3300037 406683.99894758564
uniaxialMaterial Series 3400037 3100037.0 3300037.0
uniaxialMaterial Hysteretic 3500037 44.0 0.0015172413793103448 50.1269111888195 0.028418555829904026 30.0761467132917 0.034861329245003944 -39.2158049164115 -0.0013522691350486725 -44.062702153271346 -0.00179254655183509 -2.2031351076635675 -0.0038215822412739006 0.25 0.75 0.0 0.0 0.0
uniaxialMaterial Hysteretic 3100038 2.25 0.0005532551085910772 4.05 0.00179254655183509 0.02025 0.0038215822412739006 -2.25 -0.0005532551085910772 -4.05 -0.00179254655183509 -0.02025 -0.0038215822412739006 0.8 0.2 0.0 0.0 0.0
uniaxialMaterial ENT 3300038 406683.99894758564
uniaxialMaterial Series 3400038 3100038.0 3300038.0
uniaxialMaterial Hysteretic 3500038 44.0 0.0015172413793103448 50.12473364741606 0.0407795628424309 15.037420094224817 0.04397996357101068 -39.19822219378948 -0.0013516628342686028 -44.042946285156724 -0.00179254655183509 -2.2021473142578363 -0.0038215822412739006 0.25 0.75 0.0 0.0 0.0
uniaxialMaterial Hysteretic 3100039 2.25 0.0005532551085910772 4.05 0.00179254655183509 0.02025 0.0038215822412739006 -2.25 -0.0005532551085910772 -4.05 -0.00179254655183509 -0.02025 -0.0038215822412739006 0.8 0.2 0.0 0.0 0.0
uniaxialMaterial ENT 3300039 406683.99894758564
uniaxialMaterial Series 3400039 3100039.0 3300039.0
uniaxialMaterial Hysteretic 3500039 44.0 0.0015172413793103448 50.12473364741606 0.0407795628424309 15.037420094224817 0.04397996357101068 -39.19822219378948 -0.0013516628342686028 -44.042946285156724 -0.00179254655183509 -2.2021473142578363 -0.0038215822412739006 0.25 0.75 0.0 0.0 0.0
uniaxialMaterial Hysteretic 3100040 2.25 0.0005532551085910772 4.05 0.00179254655183509 0.02025 0.0038215822412739006 -2.25 -0.0005532551085910772 -4.05 -0.00179254655183509 -0.02025 -0.0038215822412739006 0.8 0.2 0.0 0.0 0.0
uniaxialMaterial ENT 3300040 406683.99894758564
uniaxialMaterial Series 3400040 3100040.0 3300040.0
uniaxialMaterial Hysteretic 3500040 44.0 0.0015172413793103448 50.12471294727241 0.04095187700278616 15.03741388418172 0.04414889902233937 -39.198055048915236 -0.0013516570706522495 -44.04275848192723 -0.00179254655183509 -2.2021379240963617 -0.0038215822412739006 0.25 0.75 0.0 0.0 0.0
uniaxialMaterial Hysteretic 3100041 2.25 0.0005532551085910772 4.05 0.00179254655183509 0.02025 0.0038215822412739006 -2.25 -0.0005532551085910772 -4.05 -0.00179254655183509 -0.02025 -0.0038215822412739006 0.8 0.2 0.0 0.0 0.0
uniaxialMaterial ENT 3300041 406683.99894758564
uniaxialMaterial Series 3400041 3100041.0 3300041.0
uniaxialMaterial Hysteretic 3500041 44.0 0.0015172413793103448 50.12471294773826 0.04095187310783988 15.037413884321477 0.044148895203764596 -39.19805505267682 -0.0013516570707819593 -44.04275848615373 -0.00179254655183509 -2.2021379243076864 -0.0038215822412739006 0.25 0.75 0.0 0.0 0.0
uniaxialMaterial Hysteretic 3100042 2.25 0.0005532551085910772 4.05 0.00179254655183509 0.02025 0.0038215822412739006 -2.25 -0.0005532551085910772 -4.05 -0.00179254655183509 -0.02025 -0.0038215822412739006 0.8 0.2 0.0 0.0 0.0
uniaxialMaterial ENT 3300042 406683.99894758564
uniaxialMaterial Series 3400042 3100042.0 3300042.0
uniaxialMaterial Hysteretic 3500042 44.0 0.0015172413793103448 50.12471294773826 0.04095187310783988 15.037413884321477 0.044148895203764596 -39.19805505267682 -0.0013516570707819593 -44.04275848615373 -0.00179254655183509 -2.2021379243076864 -0.0038215822412739006 0.25 0.75 0.0 0.0 0.0
uniaxialMaterial Hysteretic 3100043 2.25 0.0005532551085910772 4.05 0.00179254655183509 0.02025 0.0038215822412739006 -2.25 -0.0005532551085910772 -4.05 -0.00179254655183509 -0.02025 -0.0038215822412739006 0.8 0.2 0.0 0.0 0.0
uniaxialMaterial ENT 3300043 406683.99894758564
uniaxialMaterial Series 3400043 3100043.0 3300043.0
uniaxialMaterial Hysteretic 3500043 44.0 0.0015172413793103448 50.12471294727241 0.04095187700278616 15.03741388418172 0.04414889902233937 -39.198055048915236 -0.0013516570706522495 -44.04275848192723 -0.00179254655183509 -2.2021379240963617 -0.0038215822412739006 0.25 0.75 0.0 0.0 0.0
uniaxialMaterial Hysteretic 3100044 2.25 0.0005532551085910772 4.05 0.00179254655183509 0.02025 0.0038215822412739006 -2.25 -0.0005532551085910772 -4.05 -0.00179254655183509 -0.02025 -0.0038215822412739006 0.8 0.2 0.0 0.0 0.0
uniaxialMaterial ENT 3300044 406683.99894758564
uniaxialMaterial Series 3400044 3100044.0 3300044.0
uniaxialMaterial Hysteretic 3500044 44.0 0.0015172413793103448 50.127930415039884 0.024965067371951106 15.038379124511964 0.028475556247010887 -39.22403473555241 -0.0013525529219156002 -44.07194914107012 -0.00179254655183509 -2.203597457053506 -0.0038215822412739006 0.25 0.75 0.0 0.0 0.0
uniaxialMaterial Hysteretic 3100045 2.25 0.0005532551085910772 4.05 0.00179254655183509 0.02025 0.0038215822412739006 -2.25 -0.0005532551085910772 -4.05 -0.00179254655183509 -0.02025 -0.0038215822412739006 0.8 0.2 0.0 0.0 0.0
uniaxialMaterial ENT 3300045 406683.99894758564
uniaxialMaterial Series 3400045 3100045.0 3300045.0
uniaxialMaterial Hysteretic 3500045 44.0 0.0015172413793103448 50.127366634062895 0.026757246852723487 30.076419980437734 0.033232594953650475 -39.219482443447966 -0.001352395946325792 -44.06683420612131 -0.00179254655183509 -2.2033417103060655 -0.0038215822412739006 0.25 0.75 0.0 0.0 0.0
uniaxialMaterial Hysteretic 3100046 2.25 0.0005532551085910772 4.05 0.00179254655183509 0.02025 0.0038215822412739006 -2.25 -0.0005532551085910772 -4.05 -0.00179254655183509 -0.02025 -0.0038215822412739006 0.8 0.2 0.0 0.0 0.0
uniaxialMaterial ENT 3300046 406683.99894758564
uniaxialMaterial Series 3400046 3100046.0 3300046.0
uniaxialMaterial Hysteretic 3500046 44.0 0.0015172413793103448 50.127646662279204 0.025834044539523815 27.669461913956535 0.03172279173047101 -39.221743552442696 -0.0013524739156014723 -44.0693747780255 -0.00179254655183509 -2.203468738901275 -0.0038215822412739006 0.25 0.75 0.0 0.0 0.0
uniaxialMaterial Hysteretic 3100047 2.25 0.0005532551085910772 4.05 0.00179254655183509 0.02025 0.0038215822412739006 -2.25 -0.0005532551085910772 -4.05 -0.00179254655183509 -0.02025 -0.0038215822412739006 0.8 0.2 0.0 0.0 0.0
uniaxialMaterial ENT 3300047 406683.99894758564
uniaxialMaterial Series 3400047 3100047.0 3300047.0
uniaxialMaterial Hysteretic 3500047 44.0 0.0015172413793103448 50.12764666227858 0.02583404454150135 27.669461918632628 0.03172279173332848 -39.221743552437665 -0.0013524739156012989 -44.06937477801985 -0.00179254655183509 -2.2034687389009924 -0.0038215822412739006 0.25 0.75 0.0 0.0 0.0
uniaxialMaterial Hysteretic 3100048 2.25 0.0005532551085910772 4.05 0.00179254655183509 0.02025 0.0038215822412739006 -2.25 -0.0005532551085910772 -4.05 -0.00179254655183509 -0.02025 -0.0038215822412739006 0.8 0.2 0.0 0.0 0.0
uniaxialMaterial ENT 3300048 406683.99894758564
uniaxialMaterial Series 3400048 3100048.0 3300048.0
uniaxialMaterial Hysteretic 3500048 44.0 0.0015172413793103448 50.127366634062895 0.026757246852723487 30.076419980437734 0.033232594953650475 -39.219482443447966 -0.001352395946325792 -44.06683420612131 -0.00179254655183509 -2.2033417103060655 -0.0038215822412739006 0.25 0.75 0.0 0.0 0.0
uniaxialMaterial Hysteretic 3100049 2.25 0.0005532551085910772 4.05 0.00179254655183509 0.02025 0.0038215822412739006 -2.25 -0.0005532551085910772 -4.05 -0.00179254655183509 -0.02025 -0.0038215822412739006 0.8 0.2 0.0 0.0 0.0
uniaxialMaterial ENT 3300049 406683.99894758564
uniaxialMaterial Series 3400049 3100049.0 3300049.0
uniaxialMaterial Hysteretic 3500049 44.0 0.0015172413793103448 50.12470757674781 0.04099683043087995 15.277144573155484 0.044240798182478856 -39.198011684208545 -0.001351655575317536 -44.04270975753769 -0.00179254655183509 -2.202135487876885 -0.0038215822412739006 0.25 0.75 0.0 0.0 0.0
uniaxialMaterial Hysteretic 3100050 2.25 0.0005532551085910772 4.05 0.00179254655183509 0.02025 0.0038215822412739006 -2.25 -0.0005532551085910772 -4.05 -0.00179254655183509 -0.02025 -0.0038215822412739006 0.8 0.2 0.0 0.0 0.0
uniaxialMaterial ENT 3300050 406683.99894758564
uniaxialMaterial Series 3400050 3100050.0 3300050.0
uniaxialMaterial Hysteretic 3500050 44.0 0.0015172413793103448 50.124709085811354 0.04098418861065838 15.263153080236433 0.04422561281284334 -39.198023869256154 -0.0013516559954915915 -44.04272344860242 -0.00179254655183509 -2.202136172430121 -0.0038215822412739006 0.25 0.75 0.0 0.0 0.0
uniaxialMaterial Hysteretic 3100051 2.25 0.0005532551085910772 4.05 0.00179254655183509 0.02025 0.0038215822412739006 -2.25 -0.0005532551085910772 -4.05 -0.00179254655183509 -0.02025 -0.0038215822412739006 0.8 0.2 0.0 0.0 0.0
uniaxialMaterial ENT 3300051 406683.99894758564
uniaxialMaterial Series 3400051 3100051.0 3300051.0
uniaxialMaterial Hysteretic 3500051 44.0 0.0015172413793103448 50.12450564466427 0.0427648500315993 17.03284242835886 0.04632443037646777 -39.196381168339684 -0.0013515993506324029 -44.0408777172356 -0.00179254655183509 -2.20204388586178 -0.0038215822412739006 0.25 0.75 0.0 0.0 0.0
uniaxialMaterial Hysteretic 3100052 2.25 0.0005532551085910772 4.05 0.00179254655183509 0.02025 0.0038215822412739006 -2.25 -0.0005532551085910772 -4.05 -0.00179254655183509 -0.02025 -0.0038215822412739006 0.8 0.2 0.0 0.0 0.0
uniaxialMaterial ENT 3300052 406683.99894758564
uniaxialMaterial Series 3400052 3100052.0 3300052.0
uniaxialMaterial Hysteretic 3500052 44.0 0.0015172413793103448 50.12450551174723 0.04276606598150767 17.034193732944278 0.0463258920828412 -39.19638009509102 -0.0013515993136238283 -44.040876511338226 -0.00179254655183509 -2.2020438255669115 -0.0038215822412739006 0.25 0.75 0.0 0.0 0.0
uniaxialMaterial Hysteretic 3100053 2.25 0.0005532551085910772 4.05 0.00179254655183509 0.02025 0.0038215822412739006 -2.25 -0.0005532551085910772 -4.05 -0.00179254655183509 -0.02025 -0.0038215822412739006 0.8 0.2 0.0 0.0 0.0
uniaxialMaterial ENT 3300053 406683.99894758564
uniaxialMaterial Series 3400053 3100053.0 3300053.0
uniaxialMaterial Hysteretic 3500053 44.0 0.0015172413793103448 50.12450551174567 0.04276606599584324 17.034193748810274 0.046325892100061106 -39.196380095078375 -0.0013515993136233922 -44.040876511324015 -0.00179254655183509 -2.202043825566201 -0.0038215822412739006 0.25 0.75 0.0 0.0 0.0
uniaxialMaterial Hysteretic 3100054 2.25 0.0005532551085910772 4.05 0.00179254655183509 0.02025 0.0038215822412739006 -2.25 -0.0005532551085910772 -4.05 -0.00179254655183509 -0.02025 -0.0038215822412739006 0.8 0.2 0.0 0.0 0.0
uniaxialMaterial ENT 3300054 406683.99894758564
uniaxialMaterial Series 3400054 3100054.0 3300054.0
uniaxialMaterial Hysteretic 3500054 44.0 0.0015172413793103448 50.12450564466427 0.0427648500315993 17.03284242835886 0.04632443037646777 -39.196381168339684 -0.0013515993506324029 -44.0408777172356 -0.00179254655183509 -2.20204388586178 -0.0038215822412739006 0.25 0.75 0.0 0.0 0.0
uniaxialMaterial Hysteretic 3100055 2.25 0.0005532551085910772 4.05 0.00179254655183509 0.02025 0.0038215822412739006 -2.25 -0.0005532551085910772 -4.05 -0.00179254655183509 -0.02025 -0.0038215822412739006 0.8 0.2 0.0 0.0 0.0
uniaxialMaterial ENT 3300055 406683.99894758564
uniaxialMaterial Series 3400055 3100055.0 3300055.0
uniaxialMaterial Hysteretic 3500055 44.0 0.0015172413793103448 50.12803376503453 0.024663814280462285 17.090090696312078 0.028589498138420016 -39.22486924289446 -0.0013525816980308432 -44.07288678976905 -0.00179254655183509 -2.2036443394884526 -0.0038215822412739006 0.25 0.75 0.0 0.0 0.0
uniaxialMaterial HystereticSM 3600001 0.24296989300721084 0.00024893395285197566 0.40494982167868476 0.004 0.40494982167868476 0.01 0.08098996433573696 0.015 0.08098996433573696 0.02 -0.24296989300721084 -0.00024893395285197566 -0.40494982167868476 -0.004 -0.40494982167868476 -0.01 -0.08098996433573696 -0.015 -0.08098996433573696 -0.02 0.75 0.15 0.0 0.0 0.0
uniaxialMaterial HystereticSM 3600002 0.2295534851422121 0.00023518821916632368 0.38258914190368687 0.004 0.38258914190368687 0.01 0.07651782838073738 0.015 0.07651782838073738 0.02 -0.2295534851422121 -0.00023518821916632368 -0.38258914190368687 -0.004 -0.38258914190368687 -0.01 -0.07651782838073738 -0.015 -0.07651782838073738 -0.02 0.75 0.15 0.0 0.0 0.0
uniaxialMaterial HystereticSM 3600003 0.24296989300721084 0.00024893395285197566 0.40494982167868476 0.004 0.40494982167868476 0.01 0.08098996433573696 0.015 0.08098996433573696 0.02 -0.24296989300721084 -0.00024893395285197566 -0.40494982167868476 -0.004 -0.40494982167868476 -0.01 -0.08098996433573696 -0.015 -0.08098996433573696 -0.02 0.75 0.15 0.0 0.0 0.0
uniaxialMaterial HystereticSM 3600004 0.24296989300721084 0.00024893395285197566 0.40494982167868476 0.004 0.40494982167868476 0.01 0.08098996433573696 0.015 0.08098996433573696 0.02 -0.24296989300721084 -0.00024893395285197566 -0.40494982167868476 -0.004 -0.40494982167868476 -0.01 -0.08098996433573696 -0.015 -0.08098996433573696 -0.02 0.75 0.15 0.0 0.0 0.0
uniaxialMaterial HystereticSM 3600005 0.2295534851422121 0.00023518821916632368 0.38258914190368687 0.004 0.38258914190368687 0.01 0.07651782838073738 0.015 0.07651782838073738 0.02 -0.2295534851422121 -0.00023518821916632368 -0.38258914190368687 -0.004 -0.38258914190368687 -0.01 -0.07651782838073738 -0.015 -0.07651782838073738 -0.02 0.75 0.15 0.0 0.0 0.0
uniaxialMaterial HystereticSM 3600006 0.24296989300721084 0.00024893395285197566 0.40494982167868476 0.004 0.40494982167868476 0.01 0.08098996433573696 0.015 0.08098996433573696 0.02 -0.24296989300721084 -0.00024893395285197566 -0.40494982167868476 -0.004 -0.40494982167868476 -0.01 -0.08098996433573696 -0.015 -0.08098996433573696 -0.02 0.75 0.15 0.0 0.0 0.0
uniaxialMaterial HystereticSM 3600007 0.24296989300721084 0.00024893395285197566 0.40494982167868476 0.004 0.40494982167868476 0.0075 0.0 0.00875 0.0 0.01 -0.24296989300721084 -0.00024893395285197566 -0.40494982167868476 -0.004 -0.40494982167868476 -0.0075 -0.0 -0.00875 -0.0 -0.01 0.75 0.15 0.0 0.0 0.0
uniaxialMaterial HystereticSM 3600008 0.2295534851422121 0.00023518821916632368 0.38258914190368687 0.004 0.38258914190368687 0.01 0.07651782838073738 0.015 0.07651782838073738 0.02 -0.2295534851422121 -0.00023518821916632368 -0.38258914190368687 -0.004 -0.38258914190368687 -0.01 -0.07651782838073738 -0.015 -0.07651782838073738 -0.02 0.75 0.15 0.0 0.0 0.0
uniaxialMaterial HystereticSM 3600009 0.24296989300721084 0.00024893395285197566 0.40494982167868476 0.004 0.40494982167868476 0.0075 0.0 0.00875 0.0 0.01 -0.24296989300721084 -0.00024893395285197566 -0.40494982167868476 -0.004 -0.40494982167868476 -0.0075 -0.0 -0.00875 -0.0 -0.01 0.75 0.15 0.0 0.0 0.0
uniaxialMaterial HystereticSM 3600010 0.24296989300721084 0.00024893395285197566 0.40494982167868476 0.004 0.40494982167868476 0.0075 0.0 0.00875 0.0 0.01 -0.24296989300721084 -0.00024893395285197566 -0.40494982167868476 -0.004 -0.40494982167868476 -0.0075 -0.0 -0.00875 -0.0 -0.01 0.75 0.15 0.0 0.0 0.0
uniaxialMaterial HystereticSM 3600011 0.2295534851422121 0.00023518821916632368 0.38258914190368687 0.004 0.38258914190368687 0.01 0.07651782838073738 0.015 0.07651782838073738 0.02 -0.2295534851422121 -0.00023518821916632368 -0.38258914190368687 -0.004 -0.38258914190368687 -0.01 -0.07651782838073738 -0.015 -0.07651782838073738 -0.02 0.75 0.15 0.0 0.0 0.0
uniaxialMaterial HystereticSM 3600012 0.24296989300721084 0.00024893395285197566 0.40494982167868476 0.004 0.40494982167868476 0.0075 0.0 0.00875 0.0 0.01 -0.24296989300721084 -0.00024893395285197566 -0.40494982167868476 -0.004 -0.40494982167868476 -0.0075 -0.0 -0.00875 -0.0 -0.01 0.75 0.15 0.0 0.0 0.0
uniaxialMaterial HystereticSM 3600013 0.24296989300721084 0.00024893395285197566 0.40494982167868476 0.004 0.40494982167868476 0.0075 0.0 0.00875 0.0 0.01 -0.24296989300721084 -0.00024893395285197566 -0.40494982167868476 -0.004 -0.40494982167868476 -0.0075 -0.0 -0.00875 -0.0 -0.01 0.75 0.15 0.0 0.0 0.0
uniaxialMaterial HystereticSM 3600014 0.2295534851422121 0.00023518821916632368 0.38258914190368687 0.004 0.38258914190368687 0.01 0.07651782838073738 0.015 0.07651782838073738 0.02 -0.2295534851422121 -0.00023518821916632368 -0.38258914190368687 -0.004 -0.38258914190368687 -0.01 -0.07651782838073738 -0.015 -0.07651782838073738 -0.02 0.75 0.15 0.0 0.0 0.0
uniaxialMaterial HystereticSM 3600015 0.24296989300721084 0.00024893395285197566 0.40494982167868476 0.004 0.40494982167868476 0.0075 0.0 0.00875 0.0 0.01 -0.24296989300721084 -0.00024893395285197566 -0.40494982167868476 -0.004 -0.40494982167868476 -0.0075 -0.0 -0.00875 -0.0 -0.01 0.75 0.15 0.0 0.0 0.0
uniaxialMaterial HystereticSM 3600016 0.24296989300721084 0.00024893395285197566 0.40494982167868476 0.004 0.40494982167868476 0.01 0.08098996433573696 0.015 0.08098996433573696 0.02 -0.24296989300721084 -0.00024893395285197566 -0.40494982167868476 -0.004 -0.40494982167868476 -0.01 -0.08098996433573696 -0.015 -0.08098996433573696 -0.02 0.75 0.15 0.0 0.0 0.0
uniaxialMaterial HystereticSM 3600017 0.2295534851422121 0.00023518821916632368 0.38258914190368687 0.004 0.38258914190368687 0.01 0.07651782838073738 0.015 0.07651782838073738 0.02 -0.2295534851422121 -0.00023518821916632368 -0.38258914190368687 -0.004 -0.38258914190368687 -0.01 -0.07651782838073738 -0.015 -0.07651782838073738 -0.02 0.75 0.15 0.0 0.0 0.0
uniaxialMaterial HystereticSM 3600018 0.24296989300721084 0.00024893395285197566 0.40494982167868476 0.004 0.40494982167868476 0.01 0.08098996433573696 0.015 0.08098996433573696 0.02 -0.24296989300721084 -0.00024893395285197566 -0.40494982167868476 -0.004 -0.40494982167868476 -0.01 -0.08098996433573696 -0.015 -0.08098996433573696 -0.02 0.75 0.15 0.0 0.0 0.0
uniaxialMaterial HystereticSM 3600019 0.24296989300721084 0.00024893395285197566 0.40494982167868476 0.004 0.40494982167868476 0.01 0.08098996433573696 0.015 0.08098996433573696 0.02 -0.24296989300721084 -0.00024893395285197566 -0.40494982167868476 -0.004 -0.40494982167868476 -0.01 -0.08098996433573696 -0.015 -0.08098996433573696 -0.02 0.75 0.15 0.0 0.0 0.0
uniaxialMaterial HystereticSM 3600020 0.2295534851422121 0.00023518821916632368 0.38258914190368687 0.004 0.38258914190368687 0.01 0.07651782838073738 0.015 0.07651782838073738 0.02 -0.2295534851422121 -0.00023518821916632368 -0.38258914190368687 -0.004 -0.38258914190368687 -0.01 -0.07651782838073738 -0.015 -0.07651782838073738 -0.02 0.75 0.15 0.0 0.0 0.0
# ... 35 like lines cut
element MVLEM_3D 30000001 251 252 253 254 5 -thick 16.0 16.0 16.0 16.0 16.0 -width 12.0 12.0 12.0 12.0 12.0 -rho 0.008229166666666668 0.008229166666666668 0.008229166666666668 0.008229166666666668 0.008229166666666668 -matConcrete 3400005 3400005 3400005 3400005 3400005 -matSteel 3500005 3500005 3500005 3500005 3500005 -matShear 3600046 -CoR 0.4 -ThickMod 0.63 -Poisson 0.25 -Density 0.0
element MVLEM_3D 30000010 257 251 254 258 5 -thick 16.0 16.0 16.0 16.0 16.0 -width 12.0 12.0 12.0 12.0 12.0 -rho 0.008229166666666668 0.008229166666666668 0.008229166666666668 0.008229166666666668 0.008229166666666668 -matConcrete 3400005 3400005 3400005 3400005 3400005 -matSteel 3500005 3500005 3500005 3500005 3500005 -matShear 3600046 -CoR 0.4 -ThickMod 0.63 -Poisson 0.25 -Density 0.0
element MVLEM_3D 30000100 1286 1388 330 195 3 -thick 18.0 18.0 18.0 -width 12.0 12.0 12.0 -rho 0.009259259259259259 0.009259259259259259 0.009259259259259259 -matConcrete 3400021 3400021 3400021 -matSteel 3500021 3500021 3500021 -matShear 3600005 -CoR 0.4 -ThickMod 0.63 -Poisson 0.25 -Density 0.0
element MVLEM_3D 30001000 1141 1143 366 1123 4 -thick 18.0 18.0 18.0 18.0 -width 12.0 12.0 12.0 12.0 -rho 0.009259259259259259 0.009259259259259259 0.009259259259259259 0.009259259259259259 -matConcrete 3400053 3400053 3400053 3400053 -matSteel 3500053 3500053 3500053 3500053 -matShear 3600028 -CoR 0.4 -ThickMod 0.63 -Poisson 0.25 -Density 0.0
element MVLEM_3D 30001001 332 1297 1298 1401 4 -thick 18.0 18.0 18.0 18.0 -width 12.0 12.0 12.0 12.0 -rho 0.009259259259259259 0.009259259259259259 0.009259259259259259 0.009259259259259259 -matConcrete 3400009 3400009 3400009 3400009 -matSteel 3500009 3500009 3500009 3500009 -matShear 3600003 -CoR 0.4 -ThickMod 0.63 -Poisson 0.25 -Density 0.0
element MVLEM_3D 30001002 397 230 1144 1145 3 -thick 18.0 18.0 18.0 -width 12.0 12.0 12.0 -rho 0.009259259259259259 0.009259259259259259 0.009259259259259259 -matConcrete 3400007 3400007 3400007 -matSteel 3500007 3500007 3500007 -matShear 3600017 -CoR 0.4 -ThickMod 0.63 -Poisson 0.25 -Density 0.0
element MVLEM_3D 30001003 1145 1144 1146 1147 3 -thick 18.0 18.0 18.0 -width 12.0 12.0 12.0 -rho 0.009259259259259259 0.009259259259259259 0.009259259259259259 -matConcrete 3400007 3400007 3400007 -matSteel 3500007 3500007 3500007 -matShear 3600017 -CoR 0.4 -ThickMod 0.63 -Poisson 0.25 -Density 0.0
element MVLEM_3D 30001004 1147 1146 405 406 3 -thick 18.0 18.0 18.0 -width 12.0 12.0 12.0 -rho 0.009259259259259259 0.009259259259259259 0.009259259259259259 -matConcrete 3400007 3400007 3400007 -matSteel 3500007 3500007 3500007 -matShear 3600017 -CoR 0.4 -ThickMod 0.63 -Poisson 0.25 -Density 0.0
element MVLEM_3D 30001005 230 399 1148 1144 3 -thick 18.0 18.0 18.0 -width 12.0 12.0 12.0 -rho 0.009259259259259259 0.009259259259259259 0.009259259259259259 -matConcrete 3400007 3400007 3400007 -matSteel 3500007 3500007 3500007 -matShear 3600017 -CoR 0.4 -ThickMod 0.63 -Poisson 0.25 -Density 0.0
element MVLEM_3D 30001006 1144 1148 1149 1146 3 -thick 18.0 18.0 18.0 -width 12.0 12.0 12.0 -rho 0.009259259259259259 0.009259259259259259 0.009259259259259259 -matConcrete 3400007 3400007 3400007 -matSteel 3500007 3500007 3500007 -matShear 3600017 -CoR 0.4 -ThickMod 0.63 -Poisson 0.25 -Density 0.0
element MVLEM_3D 30001007 1146 1149 408 405 3 -thick 18.0 18.0 18.0 -width 12.0 12.0 12.0 -rho 0.009259259259259259 0.009259259259259259 0.009259259259259259 -matConcrete 3400007 3400007 3400007 -matSteel 3500007 3500007 3500007 -matShear 3600017 -CoR 0.4 -ThickMod 0.63 -Poisson 0.25 -Density 0.0
element MVLEM_3D 30001008 389 226 1150 1152 3 -thick 18.0 18.0 18.0 -width 12.0 12.0 12.0 -rho 0.009259259259259259 0.009259259259259259 0.009259259259259259 -matConcrete 3400018 3400018 3400018 -matSteel 3500018 3500018 3500018 -matShear 3600020 -CoR 0.4 -ThickMod 0.63 -Poisson 0.25 -Density 0.0
element MVLEM_3D 30001009 1152 1150 1151 1153 3 -thick 18.0 18.0 18.0 -width 12.0 12.0 12.0 -rho 0.009259259259259259 0.009259259259259259 0.009259259259259259 -matConcrete 3400018 3400018 3400018 -matSteel 3500018 3500018 3500018 -matShear 3600020 -CoR 0.4 -ThickMod 0.63 -Poisson 0.25 -Density 0.0
element MVLEM_3D 30000101 312 187 1287 1389 3 -thick 18.0 18.0 18.0 -width 12.0 12.0 12.0 -rho 0.009259259259259259 0.009259259259259259 0.009259259259259259 -matConcrete 3400024 3400024 3400024 -matSteel 3500024 3500024 3500024 -matShear 3600008 -CoR 0.4 -ThickMod 0.63 -Poisson 0.25 -Density 0.0
element MVLEM_3D 30001010 1153 1151 230 397 3 -thick 18.0 18.0 18.0 -width 12.0 12.0 12.0 -rho 0.009259259259259259 0.009259259259259259 0.009259259259259259 -matConcrete 3400018 3400018 3400018 -matSteel 3500018 3500018 3500018 -matShear 3600020 -CoR 0.4 -ThickMod 0.63 -Poisson 0.25 -Density 0.0
element MVLEM_3D 30001011 226 391 1154 1150 3 -thick 18.0 18.0 18.0 -width 12.0 12.0 12.0 -rho 0.009259259259259259 0.009259259259259259 0.009259259259259259 -matConcrete 3400018 3400018 3400018 -matSteel 3500018 3500018 3500018 -matShear 3600020 -CoR 0.4 -ThickMod 0.63 -Poisson 0.25 -Density 0.0
element MVLEM_3D 30001012 1150 1154 1155 1151 3 -thick 18.0 18.0 18.0 -width 12.0 12.0 12.0 -rho 0.009259259259259259 0.009259259259259259 0.009259259259259259 -matConcrete 3400018 3400018 3400018 -matSteel 3500018 3500018 3500018 -matShear 3600020 -CoR 0.4 -ThickMod 0.63 -Poisson 0.25 -Density 0.0
element MVLEM_3D 30001013 1151 1155 399 230 3 -thick 18.0 18.0 18.0 -width 12.0 12.0 12.0 -rho 0.009259259259259259 0.009259259259259259 0.009259259259259259 -matConcrete 3400018 3400018 3400018 -matSteel 3500018 3500018 3500018 -matShear 3600020 -CoR 0.4 -ThickMod 0.63 -Poisson 0.25 -Density 0.0
element MVLEM_3D 30001014 381 222 1156 1158 3 -thick 18.0 18.0 18.0 -width 12.0 12.0 12.0 -rho 0.009259259259259259 0.009259259259259259 0.009259259259259259 -matConcrete 3400023 3400023 3400023 -matSteel 3500023 3500023 3500023 -matShear 3600023 -CoR 0.4 -ThickMod 0.63 -Poisson 0.25 -Density 0.0
element MVLEM_3D 30001015 1158 1156 1157 1159 3 -thick 18.0 18.0 18.0 -width 12.0 12.0 12.0 -rho 0.009259259259259259 0.009259259259259259 0.009259259259259259 -matConcrete 3400023 3400023 3400023 -matSteel 3500023 3500023 3500023 -matShear 3600023 -CoR 0.4 -ThickMod 0.63 -Poisson 0.25 -Density 0.0
# ... 640 like lines cut
